git readme txt.
new line.
dev.
99999
66666
88888
