git readme txt.
new line.
dev.
66666
88888
